/*--------------------------------*- C++ -*----------------------------------*\
  =========                 |
  \\      /  F ield         | OpenFOAM: The Open Source CFD Toolbox
   \\    /   O peration     | Website:  https://openfoam.org
    \\  /    A nd           | Version:  7
     \\/     M anipulation  |
\*---------------------------------------------------------------------------*/
FoamFile
{
    version     2.0;
    format      binary;
    class       polyBoundaryMesh;
    location    "constant/air/polyMesh";
    object      boundary;
}
// * * * * * * * * * * * * * * * * * * * * * * * * * * * * * * * * * * * * * //

7
(
    airLeft
    {
        type            wall;
        inGroups        List<word> 1(wall);
        nFaces          40;
        startFace       6280;
    }
    airBottom
    {
        type            wall;
        inGroups        List<word> 1(wall);
        nFaces          0;
        startFace       6320;
    }
    airTop
    {
        type            patch;
        nFaces          0;
        startFace       6320;
    }
    frontAndBack
    {
        type            empty;
        inGroups        List<word> 1(empty);
        nFaces          6400;
        startFace       6320;
    }
    air_to_pcm
    {
        type            mappedWall;
        inGroups        List<word> 
2
(
wall
mappedPatch
)
;
        nFaces          40;
        startFace       12720;
        sampleMode      nearestPatchFace;
        sampleRegion    pcm;
        samplePatch     pcm_to_air;
    }
    procBoundary2to0
    {
        type            processor;
        inGroups        List<word> 1(processor);
        nFaces          80;
        startFace       12760;
        matchTolerance  0.0001;
        transform       unknown;
        myProcNo        2;
        neighbProcNo    0;
    }
    procBoundary2to1
    {
        type            processor;
        inGroups        List<word> 1(processor);
        nFaces          80;
        startFace       12840;
        matchTolerance  0.0001;
        transform       unknown;
        myProcNo        2;
        neighbProcNo    1;
    }
)

// ************************************************************************* //
