/*--------------------------------*- C++ -*----------------------------------*\
  =========                 |
  \\      /  F ield         | OpenFOAM: The Open Source CFD Toolbox
   \\    /   O peration     | Website:  https://openfoam.org
    \\  /    A nd           | Version:  7
     \\/     M anipulation  |
\*---------------------------------------------------------------------------*/
FoamFile
{
    version     2.0;
    format      ascii;
    class       dictionary;
    object      blockMeshDict;
}
// * * * * * * * * * * * * * * * * * * * * * * * * * * * * * * * * * * * * * //

convertToMeters 1;

vertices
(
    (-1.0 0.0 -0.05)//0
    (0.0 0.0 -0.05)//1
    (0.0 1.0 -0.05)//2
    (-1.0 1.0 -0.05)//3
    (-1.0 0.0 0.05)//4
    (0.0 0.0 0.05)//5
    (0.0 1.0 0.05)//6
    (-1.0 1.0 0.05)//7
    (0.2 0.0 -0.05)//8//pCM
    (0.2 1.0 -0.05)//9//pCM
    (0.2 0.0 0.05)//10//pCM
    (0.2 1.0 0.05)//11//pCM
);

blocks
(
    hex (0 1 2 3 4 5 6 7) air   ( 80  120 1) simpleGrading (1 1 1)
    hex (1 8 9 2 5 10 11 6) pcm ( 50  120 1) simpleGrading (1 1 1)
);

edges
(
);

defaultPatch
{
    type wedge;
    name wedgePos;
}

boundary
(
    airLeft
    {
        type wall;
        faces
        (
            (0 3 7 4)
        );
    }
    airBottom
    {
        type wall;
        faces
        (
            (0 1 5 4)
        );
    }

    airTop
    {
        type patch;
        faces
        (
            (7 6 2 3)
        );
    }
    pcmRight
    {
        type wall;
        faces
        (
            (8 9 11 10)
        );
    }
    pcmTop
    {
        type wall;
        faces
        (
            (9 2 6 11)
        );
    }
    pcmBottom
    {
        type wall;
        faces
        (
            (1 8 10 5)
        );
    }
    frontAndBack
    {
        type empty;
        faces
        (
            (0 1 2 3)
            (4 5 6 7)
            (1 8 9 2)
            (5 10 11 6)
        );
    }
   
);

mergePatchPairs
(
);

// ************************************************************************* //
